
---------- Begin Simulation Statistics ----------
final_tick                                 8561577000                       # Number of ticks from beginning of simulation (restored from checkpoints and never reset)
host_inst_rate                                 122792                       # Simulator instruction rate (inst/s)
host_mem_usage                                 662864                       # Number of bytes of host memory used
host_op_rate                                   139804                       # Simulator op (including micro ops) rate (op/s)
host_seconds                                   219.56                       # Real time elapsed on the host
host_tick_rate                               38993680                       # Simulator tick rate (ticks/s)
sim_freq                                 1000000000000                       # Frequency of simulated ticks
sim_insts                                    26960619                       # Number of instructions simulated
sim_ops                                      30695835                       # Number of ops (including micro ops) simulated
sim_seconds                                  0.008562                       # Number of seconds simulated
sim_ticks                                  8561577000                       # Number of ticks simulated
system.cpu.committedInsts                    26960619                       # Number of instructions committed
system.cpu.committedOps                      30695835                       # Number of ops (including micro ops) committed
system.cpu.cpi                               1.270234                       # CPI: cycles per instruction
system.cpu.discardedOps                          2081                       # Number of ops (including micro ops) which were discarded before commit
system.cpu.idleCycles                         1492175                       # Total number of cycles that the object has spent stopped
system.cpu.ipc                               0.787256                       # IPC: instructions per cycle
system.cpu.numCycles                         34246308                       # number of cpu cycles simulated
system.cpu.numFetchSuspends                         0                       # Number of times Execute suspended instruction fetching
system.cpu.numWorkItemsCompleted                    0                       # number of work items this cpu completed
system.cpu.numWorkItemsStarted                      0                       # number of work items this cpu started
system.cpu.op_class_0::No_OpClass                   0      0.00%      0.00% # Class of committed instruction
system.cpu.op_class_0::IntAlu                16911376     55.09%     55.09% # Class of committed instruction
system.cpu.op_class_0::IntMult                  67960      0.22%     55.31% # Class of committed instruction
system.cpu.op_class_0::IntDiv                       0      0.00%     55.31% # Class of committed instruction
system.cpu.op_class_0::FloatAdd                     0      0.00%     55.31% # Class of committed instruction
system.cpu.op_class_0::FloatCmp                     0      0.00%     55.31% # Class of committed instruction
system.cpu.op_class_0::FloatCvt                     0      0.00%     55.31% # Class of committed instruction
system.cpu.op_class_0::FloatMult                    0      0.00%     55.31% # Class of committed instruction
system.cpu.op_class_0::FloatMultAcc                 0      0.00%     55.31% # Class of committed instruction
system.cpu.op_class_0::FloatDiv                     0      0.00%     55.31% # Class of committed instruction
system.cpu.op_class_0::FloatMisc                    0      0.00%     55.31% # Class of committed instruction
system.cpu.op_class_0::FloatSqrt                    0      0.00%     55.31% # Class of committed instruction
system.cpu.op_class_0::SimdAdd                      0      0.00%     55.31% # Class of committed instruction
system.cpu.op_class_0::SimdAddAcc                   0      0.00%     55.31% # Class of committed instruction
system.cpu.op_class_0::SimdAlu                      0      0.00%     55.31% # Class of committed instruction
system.cpu.op_class_0::SimdCmp                      0      0.00%     55.31% # Class of committed instruction
system.cpu.op_class_0::SimdCvt                      0      0.00%     55.31% # Class of committed instruction
system.cpu.op_class_0::SimdMisc                     0      0.00%     55.31% # Class of committed instruction
system.cpu.op_class_0::SimdMult                     0      0.00%     55.31% # Class of committed instruction
system.cpu.op_class_0::SimdMultAcc                  0      0.00%     55.31% # Class of committed instruction
system.cpu.op_class_0::SimdShift                    0      0.00%     55.31% # Class of committed instruction
system.cpu.op_class_0::SimdShiftAcc                 0      0.00%     55.31% # Class of committed instruction
system.cpu.op_class_0::SimdDiv                      0      0.00%     55.31% # Class of committed instruction
system.cpu.op_class_0::SimdSqrt                     0      0.00%     55.31% # Class of committed instruction
system.cpu.op_class_0::SimdFloatAdd                 0      0.00%     55.31% # Class of committed instruction
system.cpu.op_class_0::SimdFloatAlu                 0      0.00%     55.31% # Class of committed instruction
system.cpu.op_class_0::SimdFloatCmp                 0      0.00%     55.31% # Class of committed instruction
system.cpu.op_class_0::SimdFloatCvt                 0      0.00%     55.31% # Class of committed instruction
system.cpu.op_class_0::SimdFloatDiv                 0      0.00%     55.31% # Class of committed instruction
system.cpu.op_class_0::SimdFloatMisc               14      0.00%     55.31% # Class of committed instruction
system.cpu.op_class_0::SimdFloatMult                0      0.00%     55.31% # Class of committed instruction
system.cpu.op_class_0::SimdFloatMultAcc             0      0.00%     55.31% # Class of committed instruction
system.cpu.op_class_0::SimdFloatSqrt                0      0.00%     55.31% # Class of committed instruction
system.cpu.op_class_0::SimdReduceAdd                0      0.00%     55.31% # Class of committed instruction
system.cpu.op_class_0::SimdReduceAlu                0      0.00%     55.31% # Class of committed instruction
system.cpu.op_class_0::SimdReduceCmp                0      0.00%     55.31% # Class of committed instruction
system.cpu.op_class_0::SimdFloatReduceAdd            0      0.00%     55.31% # Class of committed instruction
system.cpu.op_class_0::SimdFloatReduceCmp            0      0.00%     55.31% # Class of committed instruction
system.cpu.op_class_0::SimdAes                      0      0.00%     55.31% # Class of committed instruction
system.cpu.op_class_0::SimdAesMix                   0      0.00%     55.31% # Class of committed instruction
system.cpu.op_class_0::SimdSha1Hash                 0      0.00%     55.31% # Class of committed instruction
system.cpu.op_class_0::SimdSha1Hash2                0      0.00%     55.31% # Class of committed instruction
system.cpu.op_class_0::SimdSha256Hash               0      0.00%     55.31% # Class of committed instruction
system.cpu.op_class_0::SimdSha256Hash2              0      0.00%     55.31% # Class of committed instruction
system.cpu.op_class_0::SimdShaSigma2                0      0.00%     55.31% # Class of committed instruction
system.cpu.op_class_0::SimdShaSigma3                0      0.00%     55.31% # Class of committed instruction
system.cpu.op_class_0::SimdPredAlu                  0      0.00%     55.31% # Class of committed instruction
system.cpu.op_class_0::MemRead                7876485     25.66%     80.97% # Class of committed instruction
system.cpu.op_class_0::MemWrite               5840000     19.03%    100.00% # Class of committed instruction
system.cpu.op_class_0::FloatMemRead                 0      0.00%    100.00% # Class of committed instruction
system.cpu.op_class_0::FloatMemWrite                0      0.00%    100.00% # Class of committed instruction
system.cpu.op_class_0::IprAccess                    0      0.00%    100.00% # Class of committed instruction
system.cpu.op_class_0::InstPrefetch                 0      0.00%    100.00% # Class of committed instruction
system.cpu.op_class_0::total                 30695835                       # Class of committed instruction
system.cpu.tickCycles                        32754133                       # Number of cycles that the object actually ticked
system.cpu.workload.numSyscalls                    13                       # Number of system calls
system.membus.snoop_filter.hit_multi_requests           27                       # Number of requests hitting in the snoop filter with multiple (>1) holders of the requested data.
system.membus.snoop_filter.hit_multi_snoops            0                       # Number of snoops hitting in the snoop filter with multiple (>1) holders of the requested data.
system.membus.snoop_filter.hit_single_requests         3592                       # Number of requests hitting in the snoop filter with a single holder of the requested data.
system.membus.snoop_filter.hit_single_snoops            0                       # Number of snoops hitting in the snoop filter with a single holder of the requested data.
system.membus.snoop_filter.tot_requests          8544                       # Total number of requests made to the snoop filter.
system.membus.snoop_filter.tot_snoops               0                       # Total number of snoops made to the snoop filter.
system.clk_domain.clock                          1000                       # Clock period in ticks
system.cpu.branchPred.lookups                 4619671                       # Number of BP lookups
system.cpu.branchPred.condPredicted           3328683                       # Number of conditional branches predicted
system.cpu.branchPred.condIncorrect               625                       # Number of conditional branches incorrect
system.cpu.branchPred.BTBLookups              2581324                       # Number of BTB lookups
system.cpu.branchPred.BTBHits                 2580304                       # Number of BTB hits
system.cpu.branchPred.BTBHitPct             99.960485                       # BTB Hit Percentage
system.cpu.branchPred.RASUsed                  271847                       # Number of times the RAS was used to get a target.
system.cpu.branchPred.RASIncorrect                  1                       # Number of incorrect RAS predictions.
system.cpu.branchPred.indirectLookups          271708                       # Number of indirect predictor lookups.
system.cpu.branchPred.indirectHits             271560                       # Number of indirect target hits.
system.cpu.branchPred.indirectMisses              148                       # Number of indirect misses.
system.cpu.branchPred.indirectMispredicted           86                       # Number of mispredicted indirect branches.
system.cpu.dcache.demand_hits::.cpu.data     13236879                       # number of demand (read+write) hits
system.cpu.dcache.demand_hits::total         13236879                       # number of demand (read+write) hits
system.cpu.dcache.overall_hits::.cpu.data     13236902                       # number of overall hits
system.cpu.dcache.overall_hits::total        13236902                       # number of overall hits
system.cpu.dcache.demand_misses::.cpu.data         4540                       # number of demand (read+write) misses
system.cpu.dcache.demand_misses::total           4540                       # number of demand (read+write) misses
system.cpu.dcache.overall_misses::.cpu.data         4549                       # number of overall misses
system.cpu.dcache.overall_misses::total          4549                       # number of overall misses
system.cpu.dcache.demand_miss_latency::.cpu.data    256627000                       # number of demand (read+write) miss cycles
system.cpu.dcache.demand_miss_latency::total    256627000                       # number of demand (read+write) miss cycles
system.cpu.dcache.overall_miss_latency::.cpu.data    256627000                       # number of overall miss cycles
system.cpu.dcache.overall_miss_latency::total    256627000                       # number of overall miss cycles
system.cpu.dcache.demand_accesses::.cpu.data     13241419                       # number of demand (read+write) accesses
system.cpu.dcache.demand_accesses::total     13241419                       # number of demand (read+write) accesses
system.cpu.dcache.overall_accesses::.cpu.data     13241451                       # number of overall (read+write) accesses
system.cpu.dcache.overall_accesses::total     13241451                       # number of overall (read+write) accesses
system.cpu.dcache.demand_miss_rate::.cpu.data     0.000343                       # miss rate for demand accesses
system.cpu.dcache.demand_miss_rate::total     0.000343                       # miss rate for demand accesses
system.cpu.dcache.overall_miss_rate::.cpu.data     0.000344                       # miss rate for overall accesses
system.cpu.dcache.overall_miss_rate::total     0.000344                       # miss rate for overall accesses
system.cpu.dcache.demand_avg_miss_latency::.cpu.data 56525.770925                       # average overall miss latency
system.cpu.dcache.demand_avg_miss_latency::total 56525.770925                       # average overall miss latency
system.cpu.dcache.overall_avg_miss_latency::.cpu.data 56413.937129                       # average overall miss latency
system.cpu.dcache.overall_avg_miss_latency::total 56413.937129                       # average overall miss latency
system.cpu.dcache.blocked_cycles::no_mshrs            0                       # number of cycles access was blocked
system.cpu.dcache.blocked_cycles::no_targets            0                       # number of cycles access was blocked
system.cpu.dcache.blocked::no_mshrs                 0                       # number of cycles access was blocked
system.cpu.dcache.blocked::no_targets               0                       # number of cycles access was blocked
system.cpu.dcache.avg_blocked_cycles::no_mshrs          nan                       # average number of cycles each access was blocked
system.cpu.dcache.avg_blocked_cycles::no_targets          nan                       # average number of cycles each access was blocked
system.cpu.dcache.writebacks::.writebacks           90                       # number of writebacks
system.cpu.dcache.writebacks::total                90                       # number of writebacks
system.cpu.dcache.demand_mshr_hits::.cpu.data           66                       # number of demand (read+write) MSHR hits
system.cpu.dcache.demand_mshr_hits::total           66                       # number of demand (read+write) MSHR hits
system.cpu.dcache.overall_mshr_hits::.cpu.data           66                       # number of overall MSHR hits
system.cpu.dcache.overall_mshr_hits::total           66                       # number of overall MSHR hits
system.cpu.dcache.demand_mshr_misses::.cpu.data         4474                       # number of demand (read+write) MSHR misses
system.cpu.dcache.demand_mshr_misses::total         4474                       # number of demand (read+write) MSHR misses
system.cpu.dcache.overall_mshr_misses::.cpu.data         4481                       # number of overall MSHR misses
system.cpu.dcache.overall_mshr_misses::total         4481                       # number of overall MSHR misses
system.cpu.dcache.demand_mshr_miss_latency::.cpu.data    250694750                       # number of demand (read+write) MSHR miss cycles
system.cpu.dcache.demand_mshr_miss_latency::total    250694750                       # number of demand (read+write) MSHR miss cycles
system.cpu.dcache.overall_mshr_miss_latency::.cpu.data    251115250                       # number of overall MSHR miss cycles
system.cpu.dcache.overall_mshr_miss_latency::total    251115250                       # number of overall MSHR miss cycles
system.cpu.dcache.demand_mshr_miss_rate::.cpu.data     0.000338                       # mshr miss rate for demand accesses
system.cpu.dcache.demand_mshr_miss_rate::total     0.000338                       # mshr miss rate for demand accesses
system.cpu.dcache.overall_mshr_miss_rate::.cpu.data     0.000338                       # mshr miss rate for overall accesses
system.cpu.dcache.overall_mshr_miss_rate::total     0.000338                       # mshr miss rate for overall accesses
system.cpu.dcache.demand_avg_mshr_miss_latency::.cpu.data 56033.694680                       # average overall mshr miss latency
system.cpu.dcache.demand_avg_mshr_miss_latency::total 56033.694680                       # average overall mshr miss latency
system.cpu.dcache.overall_avg_mshr_miss_latency::.cpu.data 56040.002232                       # average overall mshr miss latency
system.cpu.dcache.overall_avg_mshr_miss_latency::total 56040.002232                       # average overall mshr miss latency
system.cpu.dcache.replacements                   3460                       # number of replacements
system.cpu.dcache.ReadReq_hits::.cpu.data      7600787                       # number of ReadReq hits
system.cpu.dcache.ReadReq_hits::total         7600787                       # number of ReadReq hits
system.cpu.dcache.ReadReq_misses::.cpu.data         4393                       # number of ReadReq misses
system.cpu.dcache.ReadReq_misses::total          4393                       # number of ReadReq misses
system.cpu.dcache.ReadReq_miss_latency::.cpu.data    248333500                       # number of ReadReq miss cycles
system.cpu.dcache.ReadReq_miss_latency::total    248333500                       # number of ReadReq miss cycles
system.cpu.dcache.ReadReq_accesses::.cpu.data      7605180                       # number of ReadReq accesses(hits+misses)
system.cpu.dcache.ReadReq_accesses::total      7605180                       # number of ReadReq accesses(hits+misses)
system.cpu.dcache.ReadReq_miss_rate::.cpu.data     0.000578                       # miss rate for ReadReq accesses
system.cpu.dcache.ReadReq_miss_rate::total     0.000578                       # miss rate for ReadReq accesses
system.cpu.dcache.ReadReq_avg_miss_latency::.cpu.data 56529.364899                       # average ReadReq miss latency
system.cpu.dcache.ReadReq_avg_miss_latency::total 56529.364899                       # average ReadReq miss latency
system.cpu.dcache.ReadReq_mshr_hits::.cpu.data            6                       # number of ReadReq MSHR hits
system.cpu.dcache.ReadReq_mshr_hits::total            6                       # number of ReadReq MSHR hits
system.cpu.dcache.ReadReq_mshr_misses::.cpu.data         4387                       # number of ReadReq MSHR misses
system.cpu.dcache.ReadReq_mshr_misses::total         4387                       # number of ReadReq MSHR misses
system.cpu.dcache.ReadReq_mshr_miss_latency::.cpu.data    245787000                       # number of ReadReq MSHR miss cycles
system.cpu.dcache.ReadReq_mshr_miss_latency::total    245787000                       # number of ReadReq MSHR miss cycles
system.cpu.dcache.ReadReq_mshr_miss_rate::.cpu.data     0.000577                       # mshr miss rate for ReadReq accesses
system.cpu.dcache.ReadReq_mshr_miss_rate::total     0.000577                       # mshr miss rate for ReadReq accesses
system.cpu.dcache.ReadReq_avg_mshr_miss_latency::.cpu.data 56026.213814                       # average ReadReq mshr miss latency
system.cpu.dcache.ReadReq_avg_mshr_miss_latency::total 56026.213814                       # average ReadReq mshr miss latency
system.cpu.dcache.WriteReq_hits::.cpu.data      5636092                       # number of WriteReq hits
system.cpu.dcache.WriteReq_hits::total        5636092                       # number of WriteReq hits
system.cpu.dcache.WriteReq_misses::.cpu.data          147                       # number of WriteReq misses
system.cpu.dcache.WriteReq_misses::total          147                       # number of WriteReq misses
system.cpu.dcache.WriteReq_miss_latency::.cpu.data      8293500                       # number of WriteReq miss cycles
system.cpu.dcache.WriteReq_miss_latency::total      8293500                       # number of WriteReq miss cycles
system.cpu.dcache.WriteReq_accesses::.cpu.data      5636239                       # number of WriteReq accesses(hits+misses)
system.cpu.dcache.WriteReq_accesses::total      5636239                       # number of WriteReq accesses(hits+misses)
system.cpu.dcache.WriteReq_miss_rate::.cpu.data     0.000026                       # miss rate for WriteReq accesses
system.cpu.dcache.WriteReq_miss_rate::total     0.000026                       # miss rate for WriteReq accesses
system.cpu.dcache.WriteReq_avg_miss_latency::.cpu.data 56418.367347                       # average WriteReq miss latency
system.cpu.dcache.WriteReq_avg_miss_latency::total 56418.367347                       # average WriteReq miss latency
system.cpu.dcache.WriteReq_mshr_hits::.cpu.data           60                       # number of WriteReq MSHR hits
system.cpu.dcache.WriteReq_mshr_hits::total           60                       # number of WriteReq MSHR hits
system.cpu.dcache.WriteReq_mshr_misses::.cpu.data           87                       # number of WriteReq MSHR misses
system.cpu.dcache.WriteReq_mshr_misses::total           87                       # number of WriteReq MSHR misses
system.cpu.dcache.WriteReq_mshr_miss_latency::.cpu.data      4907750                       # number of WriteReq MSHR miss cycles
system.cpu.dcache.WriteReq_mshr_miss_latency::total      4907750                       # number of WriteReq MSHR miss cycles
system.cpu.dcache.WriteReq_mshr_miss_rate::.cpu.data     0.000015                       # mshr miss rate for WriteReq accesses
system.cpu.dcache.WriteReq_mshr_miss_rate::total     0.000015                       # mshr miss rate for WriteReq accesses
system.cpu.dcache.WriteReq_avg_mshr_miss_latency::.cpu.data 56410.919540                       # average WriteReq mshr miss latency
system.cpu.dcache.WriteReq_avg_mshr_miss_latency::total 56410.919540                       # average WriteReq mshr miss latency
system.cpu.dcache.SoftPFReq_hits::.cpu.data           23                       # number of SoftPFReq hits
system.cpu.dcache.SoftPFReq_hits::total            23                       # number of SoftPFReq hits
system.cpu.dcache.SoftPFReq_misses::.cpu.data            9                       # number of SoftPFReq misses
system.cpu.dcache.SoftPFReq_misses::total            9                       # number of SoftPFReq misses
system.cpu.dcache.SoftPFReq_accesses::.cpu.data           32                       # number of SoftPFReq accesses(hits+misses)
system.cpu.dcache.SoftPFReq_accesses::total           32                       # number of SoftPFReq accesses(hits+misses)
system.cpu.dcache.SoftPFReq_miss_rate::.cpu.data     0.281250                       # miss rate for SoftPFReq accesses
system.cpu.dcache.SoftPFReq_miss_rate::total     0.281250                       # miss rate for SoftPFReq accesses
system.cpu.dcache.SoftPFReq_mshr_misses::.cpu.data            7                       # number of SoftPFReq MSHR misses
system.cpu.dcache.SoftPFReq_mshr_misses::total            7                       # number of SoftPFReq MSHR misses
system.cpu.dcache.SoftPFReq_mshr_miss_latency::.cpu.data       420500                       # number of SoftPFReq MSHR miss cycles
system.cpu.dcache.SoftPFReq_mshr_miss_latency::total       420500                       # number of SoftPFReq MSHR miss cycles
system.cpu.dcache.SoftPFReq_mshr_miss_rate::.cpu.data     0.218750                       # mshr miss rate for SoftPFReq accesses
system.cpu.dcache.SoftPFReq_mshr_miss_rate::total     0.218750                       # mshr miss rate for SoftPFReq accesses
system.cpu.dcache.SoftPFReq_avg_mshr_miss_latency::.cpu.data 60071.428571                       # average SoftPFReq mshr miss latency
system.cpu.dcache.SoftPFReq_avg_mshr_miss_latency::total 60071.428571                       # average SoftPFReq mshr miss latency
system.cpu.dcache.LoadLockedReq_hits::.cpu.data       135795                       # number of LoadLockedReq hits
system.cpu.dcache.LoadLockedReq_hits::total       135795                       # number of LoadLockedReq hits
system.cpu.dcache.LoadLockedReq_misses::.cpu.data            3                       # number of LoadLockedReq misses
system.cpu.dcache.LoadLockedReq_misses::total            3                       # number of LoadLockedReq misses
system.cpu.dcache.LoadLockedReq_miss_latency::.cpu.data       172000                       # number of LoadLockedReq miss cycles
system.cpu.dcache.LoadLockedReq_miss_latency::total       172000                       # number of LoadLockedReq miss cycles
system.cpu.dcache.LoadLockedReq_accesses::.cpu.data       135798                       # number of LoadLockedReq accesses(hits+misses)
system.cpu.dcache.LoadLockedReq_accesses::total       135798                       # number of LoadLockedReq accesses(hits+misses)
system.cpu.dcache.LoadLockedReq_miss_rate::.cpu.data     0.000022                       # miss rate for LoadLockedReq accesses
system.cpu.dcache.LoadLockedReq_miss_rate::total     0.000022                       # miss rate for LoadLockedReq accesses
system.cpu.dcache.LoadLockedReq_avg_miss_latency::.cpu.data 57333.333333                       # average LoadLockedReq miss latency
system.cpu.dcache.LoadLockedReq_avg_miss_latency::total 57333.333333                       # average LoadLockedReq miss latency
system.cpu.dcache.LoadLockedReq_mshr_misses::.cpu.data            3                       # number of LoadLockedReq MSHR misses
system.cpu.dcache.LoadLockedReq_mshr_misses::total            3                       # number of LoadLockedReq MSHR misses
system.cpu.dcache.LoadLockedReq_mshr_miss_latency::.cpu.data       170500                       # number of LoadLockedReq MSHR miss cycles
system.cpu.dcache.LoadLockedReq_mshr_miss_latency::total       170500                       # number of LoadLockedReq MSHR miss cycles
system.cpu.dcache.LoadLockedReq_mshr_miss_rate::.cpu.data     0.000022                       # mshr miss rate for LoadLockedReq accesses
system.cpu.dcache.LoadLockedReq_mshr_miss_rate::total     0.000022                       # mshr miss rate for LoadLockedReq accesses
system.cpu.dcache.LoadLockedReq_avg_mshr_miss_latency::.cpu.data 56833.333333                       # average LoadLockedReq mshr miss latency
system.cpu.dcache.LoadLockedReq_avg_mshr_miss_latency::total 56833.333333                       # average LoadLockedReq mshr miss latency
system.cpu.dcache.StoreCondReq_hits::.cpu.data       135798                       # number of StoreCondReq hits
system.cpu.dcache.StoreCondReq_hits::total       135798                       # number of StoreCondReq hits
system.cpu.dcache.StoreCondReq_accesses::.cpu.data       135798                       # number of StoreCondReq accesses(hits+misses)
system.cpu.dcache.StoreCondReq_accesses::total       135798                       # number of StoreCondReq accesses(hits+misses)
system.cpu.dcache.power_state.pwrStateResidencyTicks::UNDEFINED   8561577000                       # Cumulative time (in ticks) in various power states
system.cpu.dcache.tags.tagsinuse           243.788439                       # Cycle average of tags in use
system.cpu.dcache.tags.total_refs            13512979                       # Total number of references to valid blocks.
system.cpu.dcache.tags.sampled_refs              4484                       # Sample count of references to valid blocks.
system.cpu.dcache.tags.avg_refs           3013.599242                       # Average number of references to valid blocks.
system.cpu.dcache.tags.warmup_cycle            143000                       # Cycle when the warmup percentage was hit.
system.cpu.dcache.tags.occ_blocks::.cpu.data   243.788439                       # Average occupied blocks per requestor
system.cpu.dcache.tags.occ_percent::.cpu.data     0.238075                       # Average percentage of cache occupancy
system.cpu.dcache.tags.occ_percent::total     0.238075                       # Average percentage of cache occupancy
system.cpu.dcache.tags.occ_task_id_blocks::1024         1024                       # Occupied blocks per task id
system.cpu.dcache.tags.age_task_id_blocks_1024::0           62                       # Occupied blocks per task id
system.cpu.dcache.tags.age_task_id_blocks_1024::1          528                       # Occupied blocks per task id
system.cpu.dcache.tags.age_task_id_blocks_1024::2          432                       # Occupied blocks per task id
system.cpu.dcache.tags.age_task_id_blocks_1024::3            2                       # Occupied blocks per task id
system.cpu.dcache.tags.occ_task_id_percent::1024            1                       # Percentage of cache occupancy per task id
system.cpu.dcache.tags.tag_accesses          27030578                       # Number of tag accesses
system.cpu.dcache.tags.data_accesses         27030578                       # Number of data accesses
system.cpu.dcache.tags.power_state.pwrStateResidencyTicks::UNDEFINED   8561577000                       # Cumulative time (in ticks) in various power states
system.cpu.dtb.instHits                             0                       # ITB inst hits
system.cpu.dtb.instMisses                           0                       # ITB inst misses
system.cpu.dtb.readHits                             0                       # DTB read hits
system.cpu.dtb.readMisses                           0                       # DTB read misses
system.cpu.dtb.writeHits                            0                       # DTB write hits
system.cpu.dtb.writeMisses                          0                       # DTB write misses
system.cpu.dtb.inserts                              0                       # Number of times an entry is inserted into the TLB
system.cpu.dtb.flushTlb                             0                       # Number of times complete TLB was flushed
system.cpu.dtb.flushTlbMva                          0                       # Number of times TLB was flushed by MVA
system.cpu.dtb.flushTlbMvaAsid                      0                       # Number of times TLB was flushed by MVA & ASID
system.cpu.dtb.flushTlbAsid                         0                       # Number of times TLB was flushed by ASID
system.cpu.dtb.flushedEntries                       0                       # Number of entries that have been flushed from TLB
system.cpu.dtb.alignFaults                          0                       # Number of TLB faults due to alignment restrictions
system.cpu.dtb.prefetchFaults                       0                       # Number of TLB faults due to prefetch
system.cpu.dtb.domainFaults                         0                       # Number of TLB faults due to domain restrictions
system.cpu.dtb.permsFaults                          0                       # Number of TLB faults due to permissions restrictions
system.cpu.dtb.readAccesses                         0                       # DTB read accesses
system.cpu.dtb.writeAccesses                        0                       # DTB write accesses
system.cpu.dtb.instAccesses                         0                       # ITB inst accesses
system.cpu.dtb.hits                                 0                       # Total TLB (inst and data) hits
system.cpu.dtb.misses                               0                       # Total TLB (inst and data) misses
system.cpu.dtb.accesses                             0                       # Total TLB (inst and data) accesses
system.cpu.dtb.stage2_mmu.stage2_tlb.instHits            0                       # ITB inst hits
system.cpu.dtb.stage2_mmu.stage2_tlb.instMisses            0                       # ITB inst misses
system.cpu.dtb.stage2_mmu.stage2_tlb.readHits            0                       # DTB read hits
system.cpu.dtb.stage2_mmu.stage2_tlb.readMisses            0                       # DTB read misses
system.cpu.dtb.stage2_mmu.stage2_tlb.writeHits            0                       # DTB write hits
system.cpu.dtb.stage2_mmu.stage2_tlb.writeMisses            0                       # DTB write misses
system.cpu.dtb.stage2_mmu.stage2_tlb.inserts            0                       # Number of times an entry is inserted into the TLB
system.cpu.dtb.stage2_mmu.stage2_tlb.flushTlb            0                       # Number of times complete TLB was flushed
system.cpu.dtb.stage2_mmu.stage2_tlb.flushTlbMva            0                       # Number of times TLB was flushed by MVA
system.cpu.dtb.stage2_mmu.stage2_tlb.flushTlbMvaAsid            0                       # Number of times TLB was flushed by MVA & ASID
system.cpu.dtb.stage2_mmu.stage2_tlb.flushTlbAsid            0                       # Number of times TLB was flushed by ASID
system.cpu.dtb.stage2_mmu.stage2_tlb.flushedEntries            0                       # Number of entries that have been flushed from TLB
system.cpu.dtb.stage2_mmu.stage2_tlb.alignFaults            0                       # Number of TLB faults due to alignment restrictions
system.cpu.dtb.stage2_mmu.stage2_tlb.prefetchFaults            0                       # Number of TLB faults due to prefetch
system.cpu.dtb.stage2_mmu.stage2_tlb.domainFaults            0                       # Number of TLB faults due to domain restrictions
system.cpu.dtb.stage2_mmu.stage2_tlb.permsFaults            0                       # Number of TLB faults due to permissions restrictions
system.cpu.dtb.stage2_mmu.stage2_tlb.readAccesses            0                       # DTB read accesses
system.cpu.dtb.stage2_mmu.stage2_tlb.writeAccesses            0                       # DTB write accesses
system.cpu.dtb.stage2_mmu.stage2_tlb.instAccesses            0                       # ITB inst accesses
system.cpu.dtb.stage2_mmu.stage2_tlb.hits            0                       # Total TLB (inst and data) hits
system.cpu.dtb.stage2_mmu.stage2_tlb.misses            0                       # Total TLB (inst and data) misses
system.cpu.dtb.stage2_mmu.stage2_tlb.accesses            0                       # Total TLB (inst and data) accesses
system.cpu.dtb.stage2_mmu.stage2_tlb.walker.walks            0                       # Table walker walks requested
system.cpu.dtb.stage2_mmu.stage2_tlb.walker.requestOrigin_Requested::Data            0                       # Table walker requests started/completed, data/inst
system.cpu.dtb.stage2_mmu.stage2_tlb.walker.requestOrigin_Requested::Inst            0                       # Table walker requests started/completed, data/inst
system.cpu.dtb.stage2_mmu.stage2_tlb.walker.requestOrigin_Requested::total            0                       # Table walker requests started/completed, data/inst
system.cpu.dtb.stage2_mmu.stage2_tlb.walker.requestOrigin_Completed::Data            0                       # Table walker requests started/completed, data/inst
system.cpu.dtb.stage2_mmu.stage2_tlb.walker.requestOrigin_Completed::Inst            0                       # Table walker requests started/completed, data/inst
system.cpu.dtb.stage2_mmu.stage2_tlb.walker.requestOrigin_Completed::total            0                       # Table walker requests started/completed, data/inst
system.cpu.dtb.stage2_mmu.stage2_tlb.walker.requestOrigin::total            0                       # Table walker requests started/completed, data/inst
system.cpu.dtb.stage2_mmu.stage2_tlb.walker.power_state.pwrStateResidencyTicks::UNDEFINED   8561577000                       # Cumulative time (in ticks) in various power states
system.cpu.dtb.walker.walks                         0                       # Table walker walks requested
system.cpu.dtb.walker.requestOrigin_Requested::Data            0                       # Table walker requests started/completed, data/inst
system.cpu.dtb.walker.requestOrigin_Requested::Inst            0                       # Table walker requests started/completed, data/inst
system.cpu.dtb.walker.requestOrigin_Requested::total            0                       # Table walker requests started/completed, data/inst
system.cpu.dtb.walker.requestOrigin_Completed::Data            0                       # Table walker requests started/completed, data/inst
system.cpu.dtb.walker.requestOrigin_Completed::Inst            0                       # Table walker requests started/completed, data/inst
system.cpu.dtb.walker.requestOrigin_Completed::total            0                       # Table walker requests started/completed, data/inst
system.cpu.dtb.walker.requestOrigin::total            0                       # Table walker requests started/completed, data/inst
system.cpu.dtb.walker.power_state.pwrStateResidencyTicks::UNDEFINED   8561577000                       # Cumulative time (in ticks) in various power states
system.cpu.fetch2.intInstructions            11415293                       # Number of integer instructions successfully decoded
system.cpu.fetch2.fpInstructions                    0                       # Number of floating point instructions successfully decoded
system.cpu.fetch2.vecInstructions                   0                       # Number of SIMD instructions successfully decoded
system.cpu.fetch2.loadInstructions            6655342                       # Number of memory load instructions successfully decoded
system.cpu.fetch2.storeInstructions           3531606                       # Number of memory store instructions successfully decoded
system.cpu.fetch2.amoInstructions                   0                       # Number of memory atomic instructions successfully decoded
system.cpu.icache.demand_hits::.cpu.inst      8557202                       # number of demand (read+write) hits
system.cpu.icache.demand_hits::total          8557202                       # number of demand (read+write) hits
system.cpu.icache.overall_hits::.cpu.inst      8557202                       # number of overall hits
system.cpu.icache.overall_hits::total         8557202                       # number of overall hits
system.cpu.icache.demand_misses::.cpu.inst          475                       # number of demand (read+write) misses
system.cpu.icache.demand_misses::total            475                       # number of demand (read+write) misses
system.cpu.icache.overall_misses::.cpu.inst          475                       # number of overall misses
system.cpu.icache.overall_misses::total           475                       # number of overall misses
system.cpu.icache.demand_miss_latency::.cpu.inst     26874000                       # number of demand (read+write) miss cycles
system.cpu.icache.demand_miss_latency::total     26874000                       # number of demand (read+write) miss cycles
system.cpu.icache.overall_miss_latency::.cpu.inst     26874000                       # number of overall miss cycles
system.cpu.icache.overall_miss_latency::total     26874000                       # number of overall miss cycles
system.cpu.icache.demand_accesses::.cpu.inst      8557677                       # number of demand (read+write) accesses
system.cpu.icache.demand_accesses::total      8557677                       # number of demand (read+write) accesses
system.cpu.icache.overall_accesses::.cpu.inst      8557677                       # number of overall (read+write) accesses
system.cpu.icache.overall_accesses::total      8557677                       # number of overall (read+write) accesses
system.cpu.icache.demand_miss_rate::.cpu.inst     0.000056                       # miss rate for demand accesses
system.cpu.icache.demand_miss_rate::total     0.000056                       # miss rate for demand accesses
system.cpu.icache.overall_miss_rate::.cpu.inst     0.000056                       # miss rate for overall accesses
system.cpu.icache.overall_miss_rate::total     0.000056                       # miss rate for overall accesses
system.cpu.icache.demand_avg_miss_latency::.cpu.inst 56576.842105                       # average overall miss latency
system.cpu.icache.demand_avg_miss_latency::total 56576.842105                       # average overall miss latency
system.cpu.icache.overall_avg_miss_latency::.cpu.inst 56576.842105                       # average overall miss latency
system.cpu.icache.overall_avg_miss_latency::total 56576.842105                       # average overall miss latency
system.cpu.icache.blocked_cycles::no_mshrs            0                       # number of cycles access was blocked
system.cpu.icache.blocked_cycles::no_targets            0                       # number of cycles access was blocked
system.cpu.icache.blocked::no_mshrs                 0                       # number of cycles access was blocked
system.cpu.icache.blocked::no_targets               0                       # number of cycles access was blocked
system.cpu.icache.avg_blocked_cycles::no_mshrs          nan                       # average number of cycles each access was blocked
system.cpu.icache.avg_blocked_cycles::no_targets          nan                       # average number of cycles each access was blocked
system.cpu.icache.writebacks::.writebacks          125                       # number of writebacks
system.cpu.icache.writebacks::total               125                       # number of writebacks
system.cpu.icache.demand_mshr_misses::.cpu.inst          475                       # number of demand (read+write) MSHR misses
system.cpu.icache.demand_mshr_misses::total          475                       # number of demand (read+write) MSHR misses
system.cpu.icache.overall_mshr_misses::.cpu.inst          475                       # number of overall MSHR misses
system.cpu.icache.overall_mshr_misses::total          475                       # number of overall MSHR misses
system.cpu.icache.demand_mshr_miss_latency::.cpu.inst     26636500                       # number of demand (read+write) MSHR miss cycles
system.cpu.icache.demand_mshr_miss_latency::total     26636500                       # number of demand (read+write) MSHR miss cycles
system.cpu.icache.overall_mshr_miss_latency::.cpu.inst     26636500                       # number of overall MSHR miss cycles
system.cpu.icache.overall_mshr_miss_latency::total     26636500                       # number of overall MSHR miss cycles
system.cpu.icache.demand_mshr_miss_rate::.cpu.inst     0.000056                       # mshr miss rate for demand accesses
system.cpu.icache.demand_mshr_miss_rate::total     0.000056                       # mshr miss rate for demand accesses
system.cpu.icache.overall_mshr_miss_rate::.cpu.inst     0.000056                       # mshr miss rate for overall accesses
system.cpu.icache.overall_mshr_miss_rate::total     0.000056                       # mshr miss rate for overall accesses
system.cpu.icache.demand_avg_mshr_miss_latency::.cpu.inst 56076.842105                       # average overall mshr miss latency
system.cpu.icache.demand_avg_mshr_miss_latency::total 56076.842105                       # average overall mshr miss latency
system.cpu.icache.overall_avg_mshr_miss_latency::.cpu.inst 56076.842105                       # average overall mshr miss latency
system.cpu.icache.overall_avg_mshr_miss_latency::total 56076.842105                       # average overall mshr miss latency
system.cpu.icache.replacements                    125                       # number of replacements
system.cpu.icache.ReadReq_hits::.cpu.inst      8557202                       # number of ReadReq hits
system.cpu.icache.ReadReq_hits::total         8557202                       # number of ReadReq hits
system.cpu.icache.ReadReq_misses::.cpu.inst          475                       # number of ReadReq misses
system.cpu.icache.ReadReq_misses::total           475                       # number of ReadReq misses
system.cpu.icache.ReadReq_miss_latency::.cpu.inst     26874000                       # number of ReadReq miss cycles
system.cpu.icache.ReadReq_miss_latency::total     26874000                       # number of ReadReq miss cycles
system.cpu.icache.ReadReq_accesses::.cpu.inst      8557677                       # number of ReadReq accesses(hits+misses)
system.cpu.icache.ReadReq_accesses::total      8557677                       # number of ReadReq accesses(hits+misses)
system.cpu.icache.ReadReq_miss_rate::.cpu.inst     0.000056                       # miss rate for ReadReq accesses
system.cpu.icache.ReadReq_miss_rate::total     0.000056                       # miss rate for ReadReq accesses
system.cpu.icache.ReadReq_avg_miss_latency::.cpu.inst 56576.842105                       # average ReadReq miss latency
system.cpu.icache.ReadReq_avg_miss_latency::total 56576.842105                       # average ReadReq miss latency
system.cpu.icache.ReadReq_mshr_misses::.cpu.inst          475                       # number of ReadReq MSHR misses
system.cpu.icache.ReadReq_mshr_misses::total          475                       # number of ReadReq MSHR misses
system.cpu.icache.ReadReq_mshr_miss_latency::.cpu.inst     26636500                       # number of ReadReq MSHR miss cycles
system.cpu.icache.ReadReq_mshr_miss_latency::total     26636500                       # number of ReadReq MSHR miss cycles
system.cpu.icache.ReadReq_mshr_miss_rate::.cpu.inst     0.000056                       # mshr miss rate for ReadReq accesses
system.cpu.icache.ReadReq_mshr_miss_rate::total     0.000056                       # mshr miss rate for ReadReq accesses
system.cpu.icache.ReadReq_avg_mshr_miss_latency::.cpu.inst 56076.842105                       # average ReadReq mshr miss latency
system.cpu.icache.ReadReq_avg_mshr_miss_latency::total 56076.842105                       # average ReadReq mshr miss latency
system.cpu.icache.power_state.pwrStateResidencyTicks::UNDEFINED   8561577000                       # Cumulative time (in ticks) in various power states
system.cpu.icache.tags.tagsinuse           297.601579                       # Cycle average of tags in use
system.cpu.icache.tags.total_refs             8557677                       # Total number of references to valid blocks.
system.cpu.icache.tags.sampled_refs               475                       # Sample count of references to valid blocks.
system.cpu.icache.tags.avg_refs          18016.162105                       # Average number of references to valid blocks.
system.cpu.icache.tags.warmup_cycle             77000                       # Cycle when the warmup percentage was hit.
system.cpu.icache.tags.occ_blocks::.cpu.inst   297.601579                       # Average occupied blocks per requestor
system.cpu.icache.tags.occ_percent::.cpu.inst     0.581253                       # Average percentage of cache occupancy
system.cpu.icache.tags.occ_percent::total     0.581253                       # Average percentage of cache occupancy
system.cpu.icache.tags.occ_task_id_blocks::1024          350                       # Occupied blocks per task id
system.cpu.icache.tags.age_task_id_blocks_1024::0          116                       # Occupied blocks per task id
system.cpu.icache.tags.age_task_id_blocks_1024::2            1                       # Occupied blocks per task id
system.cpu.icache.tags.age_task_id_blocks_1024::3          233                       # Occupied blocks per task id
system.cpu.icache.tags.occ_task_id_percent::1024     0.683594                       # Percentage of cache occupancy per task id
system.cpu.icache.tags.tag_accesses          17115829                       # Number of tag accesses
system.cpu.icache.tags.data_accesses         17115829                       # Number of data accesses
system.cpu.icache.tags.power_state.pwrStateResidencyTicks::UNDEFINED   8561577000                       # Cumulative time (in ticks) in various power states
system.cpu.itb.instHits                             0                       # ITB inst hits
system.cpu.itb.instMisses                           0                       # ITB inst misses
system.cpu.itb.readHits                             0                       # DTB read hits
system.cpu.itb.readMisses                           0                       # DTB read misses
system.cpu.itb.writeHits                            0                       # DTB write hits
system.cpu.itb.writeMisses                          0                       # DTB write misses
system.cpu.itb.inserts                              0                       # Number of times an entry is inserted into the TLB
system.cpu.itb.flushTlb                             0                       # Number of times complete TLB was flushed
system.cpu.itb.flushTlbMva                          0                       # Number of times TLB was flushed by MVA
system.cpu.itb.flushTlbMvaAsid                      0                       # Number of times TLB was flushed by MVA & ASID
system.cpu.itb.flushTlbAsid                         0                       # Number of times TLB was flushed by ASID
system.cpu.itb.flushedEntries                       0                       # Number of entries that have been flushed from TLB
system.cpu.itb.alignFaults                          0                       # Number of TLB faults due to alignment restrictions
system.cpu.itb.prefetchFaults                       0                       # Number of TLB faults due to prefetch
system.cpu.itb.domainFaults                         0                       # Number of TLB faults due to domain restrictions
system.cpu.itb.permsFaults                          0                       # Number of TLB faults due to permissions restrictions
system.cpu.itb.readAccesses                         0                       # DTB read accesses
system.cpu.itb.writeAccesses                        0                       # DTB write accesses
system.cpu.itb.instAccesses                         0                       # ITB inst accesses
system.cpu.itb.hits                                 0                       # Total TLB (inst and data) hits
system.cpu.itb.misses                               0                       # Total TLB (inst and data) misses
system.cpu.itb.accesses                             0                       # Total TLB (inst and data) accesses
system.cpu.itb.stage2_mmu.stage2_tlb.instHits            0                       # ITB inst hits
system.cpu.itb.stage2_mmu.stage2_tlb.instMisses            0                       # ITB inst misses
system.cpu.itb.stage2_mmu.stage2_tlb.readHits            0                       # DTB read hits
system.cpu.itb.stage2_mmu.stage2_tlb.readMisses            0                       # DTB read misses
system.cpu.itb.stage2_mmu.stage2_tlb.writeHits            0                       # DTB write hits
system.cpu.itb.stage2_mmu.stage2_tlb.writeMisses            0                       # DTB write misses
system.cpu.itb.stage2_mmu.stage2_tlb.inserts            0                       # Number of times an entry is inserted into the TLB
system.cpu.itb.stage2_mmu.stage2_tlb.flushTlb            0                       # Number of times complete TLB was flushed
system.cpu.itb.stage2_mmu.stage2_tlb.flushTlbMva            0                       # Number of times TLB was flushed by MVA
system.cpu.itb.stage2_mmu.stage2_tlb.flushTlbMvaAsid            0                       # Number of times TLB was flushed by MVA & ASID
system.cpu.itb.stage2_mmu.stage2_tlb.flushTlbAsid            0                       # Number of times TLB was flushed by ASID
system.cpu.itb.stage2_mmu.stage2_tlb.flushedEntries            0                       # Number of entries that have been flushed from TLB
system.cpu.itb.stage2_mmu.stage2_tlb.alignFaults            0                       # Number of TLB faults due to alignment restrictions
system.cpu.itb.stage2_mmu.stage2_tlb.prefetchFaults            0                       # Number of TLB faults due to prefetch
system.cpu.itb.stage2_mmu.stage2_tlb.domainFaults            0                       # Number of TLB faults due to domain restrictions
system.cpu.itb.stage2_mmu.stage2_tlb.permsFaults            0                       # Number of TLB faults due to permissions restrictions
system.cpu.itb.stage2_mmu.stage2_tlb.readAccesses            0                       # DTB read accesses
system.cpu.itb.stage2_mmu.stage2_tlb.writeAccesses            0                       # DTB write accesses
system.cpu.itb.stage2_mmu.stage2_tlb.instAccesses            0                       # ITB inst accesses
system.cpu.itb.stage2_mmu.stage2_tlb.hits            0                       # Total TLB (inst and data) hits
system.cpu.itb.stage2_mmu.stage2_tlb.misses            0                       # Total TLB (inst and data) misses
system.cpu.itb.stage2_mmu.stage2_tlb.accesses            0                       # Total TLB (inst and data) accesses
system.cpu.itb.stage2_mmu.stage2_tlb.walker.walks            0                       # Table walker walks requested
system.cpu.itb.stage2_mmu.stage2_tlb.walker.requestOrigin_Requested::Data            0                       # Table walker requests started/completed, data/inst
system.cpu.itb.stage2_mmu.stage2_tlb.walker.requestOrigin_Requested::Inst            0                       # Table walker requests started/completed, data/inst
system.cpu.itb.stage2_mmu.stage2_tlb.walker.requestOrigin_Requested::total            0                       # Table walker requests started/completed, data/inst
system.cpu.itb.stage2_mmu.stage2_tlb.walker.requestOrigin_Completed::Data            0                       # Table walker requests started/completed, data/inst
system.cpu.itb.stage2_mmu.stage2_tlb.walker.requestOrigin_Completed::Inst            0                       # Table walker requests started/completed, data/inst
system.cpu.itb.stage2_mmu.stage2_tlb.walker.requestOrigin_Completed::total            0                       # Table walker requests started/completed, data/inst
system.cpu.itb.stage2_mmu.stage2_tlb.walker.requestOrigin::total            0                       # Table walker requests started/completed, data/inst
system.cpu.itb.stage2_mmu.stage2_tlb.walker.power_state.pwrStateResidencyTicks::UNDEFINED   8561577000                       # Cumulative time (in ticks) in various power states
system.cpu.itb.walker.walks                         0                       # Table walker walks requested
system.cpu.itb.walker.requestOrigin_Requested::Data            0                       # Table walker requests started/completed, data/inst
system.cpu.itb.walker.requestOrigin_Requested::Inst            0                       # Table walker requests started/completed, data/inst
system.cpu.itb.walker.requestOrigin_Requested::total            0                       # Table walker requests started/completed, data/inst
system.cpu.itb.walker.requestOrigin_Completed::Data            0                       # Table walker requests started/completed, data/inst
system.cpu.itb.walker.requestOrigin_Completed::Inst            0                       # Table walker requests started/completed, data/inst
system.cpu.itb.walker.requestOrigin_Completed::total            0                       # Table walker requests started/completed, data/inst
system.cpu.itb.walker.requestOrigin::total            0                       # Table walker requests started/completed, data/inst
system.cpu.itb.walker.power_state.pwrStateResidencyTicks::UNDEFINED   8561577000                       # Cumulative time (in ticks) in various power states
system.cpu.power_state.pwrStateResidencyTicks::ON   8561577000                       # Cumulative time (in ticks) in various power states
system.cpu.thread_0.numInsts                 26960619                       # Number of Instructions committed
system.cpu.thread_0.numOps                   30695835                       # Number of Ops committed
system.cpu.thread_0.numMemRefs                      0                       # Number of Memory References
system.cpu_clk_domain.clock                       250                       # Clock period in ticks
system.cpu_voltage_domain.voltage                   1                       # Voltage in Volts
system.mem_ctrls.avgPriority_.writebacks::samples       207.00                       # Average QoS priority value for accepted requests
system.mem_ctrls.avgPriority_.cpu.inst::samples       460.00                       # Average QoS priority value for accepted requests
system.mem_ctrls.avgPriority_.cpu.data::samples      4477.00                       # Average QoS priority value for accepted requests
system.mem_ctrls.priorityMinLatency      0.000000018750                       # per QoS priority minimum request to response latency (s)
system.mem_ctrls.priorityMaxLatency      0.015910320500                       # per QoS priority maximum request to response latency (s)
system.mem_ctrls.numReadWriteTurnArounds           11                       # Number of turnarounds from READ to WRITE
system.mem_ctrls.numWriteReadTurnArounds           11                       # Number of turnarounds from WRITE to READ
system.mem_ctrls.numStayReadState               12268                       # Number of times bus staying in READ state
system.mem_ctrls.numStayWriteState                175                       # Number of times bus staying in WRITE state
system.mem_ctrls.readReqs                        4959                       # Number of read requests accepted
system.mem_ctrls.writeReqs                        209                       # Number of write requests accepted
system.mem_ctrls.readBursts                      4959                       # Number of controller read bursts, including those serviced by the write queue
system.mem_ctrls.writeBursts                      209                       # Number of controller write bursts, including those merged in the write queue
system.mem_ctrls.servicedByWrQ                     22                       # Number of controller read bursts serviced by the write queue
system.mem_ctrls.mergedWrBursts                     2                       # Number of controller write bursts merged with an existing one
system.mem_ctrls.neitherReadNorWriteReqs            0                       # Number of requests that are neither read nor write
system.mem_ctrls.avgRdQLen                       1.00                       # Average read queue length when enqueuing
system.mem_ctrls.avgWrQLen                      26.90                       # Average write queue length when enqueuing
system.mem_ctrls.numRdRetry                         0                       # Number of times read queue was full causing retry
system.mem_ctrls.numWrRetry                         0                       # Number of times write queue was full causing retry
system.mem_ctrls.readPktSize::0                     0                       # Read request sizes (log2)
system.mem_ctrls.readPktSize::1                     0                       # Read request sizes (log2)
system.mem_ctrls.readPktSize::2                     0                       # Read request sizes (log2)
system.mem_ctrls.readPktSize::3                     0                       # Read request sizes (log2)
system.mem_ctrls.readPktSize::4                     0                       # Read request sizes (log2)
system.mem_ctrls.readPktSize::5                     0                       # Read request sizes (log2)
system.mem_ctrls.readPktSize::6                  4959                       # Read request sizes (log2)
system.mem_ctrls.writePktSize::0                    0                       # Write request sizes (log2)
system.mem_ctrls.writePktSize::1                    0                       # Write request sizes (log2)
system.mem_ctrls.writePktSize::2                    0                       # Write request sizes (log2)
system.mem_ctrls.writePktSize::3                    0                       # Write request sizes (log2)
system.mem_ctrls.writePktSize::4                    0                       # Write request sizes (log2)
system.mem_ctrls.writePktSize::5                    0                       # Write request sizes (log2)
system.mem_ctrls.writePktSize::6                  209                       # Write request sizes (log2)
system.mem_ctrls.rdQLenPdf::0                    4812                       # What read queue length does an incoming req see
system.mem_ctrls.rdQLenPdf::1                     115                       # What read queue length does an incoming req see
system.mem_ctrls.rdQLenPdf::2                      10                       # What read queue length does an incoming req see
system.mem_ctrls.rdQLenPdf::3                       0                       # What read queue length does an incoming req see
system.mem_ctrls.rdQLenPdf::4                       0                       # What read queue length does an incoming req see
system.mem_ctrls.rdQLenPdf::5                       0                       # What read queue length does an incoming req see
system.mem_ctrls.rdQLenPdf::6                       0                       # What read queue length does an incoming req see
system.mem_ctrls.rdQLenPdf::7                       0                       # What read queue length does an incoming req see
system.mem_ctrls.rdQLenPdf::8                       0                       # What read queue length does an incoming req see
system.mem_ctrls.rdQLenPdf::9                       0                       # What read queue length does an incoming req see
system.mem_ctrls.rdQLenPdf::10                      0                       # What read queue length does an incoming req see
system.mem_ctrls.rdQLenPdf::11                      0                       # What read queue length does an incoming req see
system.mem_ctrls.rdQLenPdf::12                      0                       # What read queue length does an incoming req see
system.mem_ctrls.rdQLenPdf::13                      0                       # What read queue length does an incoming req see
system.mem_ctrls.rdQLenPdf::14                      0                       # What read queue length does an incoming req see
system.mem_ctrls.rdQLenPdf::15                      0                       # What read queue length does an incoming req see
system.mem_ctrls.rdQLenPdf::16                      0                       # What read queue length does an incoming req see
system.mem_ctrls.rdQLenPdf::17                      0                       # What read queue length does an incoming req see
system.mem_ctrls.rdQLenPdf::18                      0                       # What read queue length does an incoming req see
system.mem_ctrls.rdQLenPdf::19                      0                       # What read queue length does an incoming req see
system.mem_ctrls.rdQLenPdf::20                      0                       # What read queue length does an incoming req see
system.mem_ctrls.rdQLenPdf::21                      0                       # What read queue length does an incoming req see
system.mem_ctrls.rdQLenPdf::22                      0                       # What read queue length does an incoming req see
system.mem_ctrls.rdQLenPdf::23                      0                       # What read queue length does an incoming req see
system.mem_ctrls.rdQLenPdf::24                      0                       # What read queue length does an incoming req see
system.mem_ctrls.rdQLenPdf::25                      0                       # What read queue length does an incoming req see
system.mem_ctrls.rdQLenPdf::26                      0                       # What read queue length does an incoming req see
system.mem_ctrls.rdQLenPdf::27                      0                       # What read queue length does an incoming req see
system.mem_ctrls.rdQLenPdf::28                      0                       # What read queue length does an incoming req see
system.mem_ctrls.rdQLenPdf::29                      0                       # What read queue length does an incoming req see
system.mem_ctrls.rdQLenPdf::30                      0                       # What read queue length does an incoming req see
system.mem_ctrls.rdQLenPdf::31                      0                       # What read queue length does an incoming req see
system.mem_ctrls.wrQLenPdf::0                       1                       # What write queue length does an incoming req see
system.mem_ctrls.wrQLenPdf::1                       1                       # What write queue length does an incoming req see
system.mem_ctrls.wrQLenPdf::2                       1                       # What write queue length does an incoming req see
system.mem_ctrls.wrQLenPdf::3                       1                       # What write queue length does an incoming req see
system.mem_ctrls.wrQLenPdf::4                       1                       # What write queue length does an incoming req see
system.mem_ctrls.wrQLenPdf::5                       1                       # What write queue length does an incoming req see
system.mem_ctrls.wrQLenPdf::6                       1                       # What write queue length does an incoming req see
system.mem_ctrls.wrQLenPdf::7                       1                       # What write queue length does an incoming req see
system.mem_ctrls.wrQLenPdf::8                       1                       # What write queue length does an incoming req see
system.mem_ctrls.wrQLenPdf::9                       1                       # What write queue length does an incoming req see
system.mem_ctrls.wrQLenPdf::10                      1                       # What write queue length does an incoming req see
system.mem_ctrls.wrQLenPdf::11                      1                       # What write queue length does an incoming req see
system.mem_ctrls.wrQLenPdf::12                      1                       # What write queue length does an incoming req see
system.mem_ctrls.wrQLenPdf::13                      1                       # What write queue length does an incoming req see
system.mem_ctrls.wrQLenPdf::14                      1                       # What write queue length does an incoming req see
system.mem_ctrls.wrQLenPdf::15                      6                       # What write queue length does an incoming req see
system.mem_ctrls.wrQLenPdf::16                      6                       # What write queue length does an incoming req see
system.mem_ctrls.wrQLenPdf::17                     11                       # What write queue length does an incoming req see
system.mem_ctrls.wrQLenPdf::18                     12                       # What write queue length does an incoming req see
system.mem_ctrls.wrQLenPdf::19                     12                       # What write queue length does an incoming req see
system.mem_ctrls.wrQLenPdf::20                     12                       # What write queue length does an incoming req see
system.mem_ctrls.wrQLenPdf::21                     11                       # What write queue length does an incoming req see
system.mem_ctrls.wrQLenPdf::22                     12                       # What write queue length does an incoming req see
system.mem_ctrls.wrQLenPdf::23                     11                       # What write queue length does an incoming req see
system.mem_ctrls.wrQLenPdf::24                     11                       # What write queue length does an incoming req see
system.mem_ctrls.wrQLenPdf::25                     11                       # What write queue length does an incoming req see
system.mem_ctrls.wrQLenPdf::26                     11                       # What write queue length does an incoming req see
system.mem_ctrls.wrQLenPdf::27                     11                       # What write queue length does an incoming req see
system.mem_ctrls.wrQLenPdf::28                     11                       # What write queue length does an incoming req see
system.mem_ctrls.wrQLenPdf::29                     11                       # What write queue length does an incoming req see
system.mem_ctrls.wrQLenPdf::30                     11                       # What write queue length does an incoming req see
system.mem_ctrls.wrQLenPdf::31                     11                       # What write queue length does an incoming req see
system.mem_ctrls.wrQLenPdf::32                     11                       # What write queue length does an incoming req see
system.mem_ctrls.wrQLenPdf::33                      0                       # What write queue length does an incoming req see
system.mem_ctrls.wrQLenPdf::34                      0                       # What write queue length does an incoming req see
system.mem_ctrls.wrQLenPdf::35                      0                       # What write queue length does an incoming req see
system.mem_ctrls.wrQLenPdf::36                      0                       # What write queue length does an incoming req see
system.mem_ctrls.wrQLenPdf::37                      0                       # What write queue length does an incoming req see
system.mem_ctrls.wrQLenPdf::38                      0                       # What write queue length does an incoming req see
system.mem_ctrls.wrQLenPdf::39                      0                       # What write queue length does an incoming req see
system.mem_ctrls.wrQLenPdf::40                      0                       # What write queue length does an incoming req see
system.mem_ctrls.wrQLenPdf::41                      0                       # What write queue length does an incoming req see
system.mem_ctrls.wrQLenPdf::42                      0                       # What write queue length does an incoming req see
system.mem_ctrls.wrQLenPdf::43                      0                       # What write queue length does an incoming req see
system.mem_ctrls.wrQLenPdf::44                      0                       # What write queue length does an incoming req see
system.mem_ctrls.wrQLenPdf::45                      0                       # What write queue length does an incoming req see
system.mem_ctrls.wrQLenPdf::46                      0                       # What write queue length does an incoming req see
system.mem_ctrls.wrQLenPdf::47                      0                       # What write queue length does an incoming req see
system.mem_ctrls.wrQLenPdf::48                      0                       # What write queue length does an incoming req see
system.mem_ctrls.wrQLenPdf::49                      0                       # What write queue length does an incoming req see
system.mem_ctrls.wrQLenPdf::50                      0                       # What write queue length does an incoming req see
system.mem_ctrls.wrQLenPdf::51                      0                       # What write queue length does an incoming req see
system.mem_ctrls.wrQLenPdf::52                      0                       # What write queue length does an incoming req see
system.mem_ctrls.wrQLenPdf::53                      0                       # What write queue length does an incoming req see
system.mem_ctrls.wrQLenPdf::54                      0                       # What write queue length does an incoming req see
system.mem_ctrls.wrQLenPdf::55                      0                       # What write queue length does an incoming req see
system.mem_ctrls.wrQLenPdf::56                      0                       # What write queue length does an incoming req see
system.mem_ctrls.wrQLenPdf::57                      0                       # What write queue length does an incoming req see
system.mem_ctrls.wrQLenPdf::58                      0                       # What write queue length does an incoming req see
system.mem_ctrls.wrQLenPdf::59                      0                       # What write queue length does an incoming req see
system.mem_ctrls.wrQLenPdf::60                      0                       # What write queue length does an incoming req see
system.mem_ctrls.wrQLenPdf::61                      0                       # What write queue length does an incoming req see
system.mem_ctrls.wrQLenPdf::62                      0                       # What write queue length does an incoming req see
system.mem_ctrls.wrQLenPdf::63                      0                       # What write queue length does an incoming req see
system.mem_ctrls.rdPerTurnAround::samples           11                       # Reads before turning the bus around for writes
system.mem_ctrls.rdPerTurnAround::mean     448.272727                       # Reads before turning the bus around for writes
system.mem_ctrls.rdPerTurnAround::gmean    118.748324                       # Reads before turning the bus around for writes
system.mem_ctrls.rdPerTurnAround::stdev    968.909087                       # Reads before turning the bus around for writes
system.mem_ctrls.rdPerTurnAround::0-127             6     54.55%     54.55% # Reads before turning the bus around for writes
system.mem_ctrls.rdPerTurnAround::128-255            1      9.09%     63.64% # Reads before turning the bus around for writes
system.mem_ctrls.rdPerTurnAround::256-383            1      9.09%     72.73% # Reads before turning the bus around for writes
system.mem_ctrls.rdPerTurnAround::384-511            1      9.09%     81.82% # Reads before turning the bus around for writes
system.mem_ctrls.rdPerTurnAround::512-639            1      9.09%     90.91% # Reads before turning the bus around for writes
system.mem_ctrls.rdPerTurnAround::3200-3327            1      9.09%    100.00% # Reads before turning the bus around for writes
system.mem_ctrls.rdPerTurnAround::total            11                       # Reads before turning the bus around for writes
system.mem_ctrls.wrPerTurnAround::samples           11                       # Writes before turning the bus around for reads
system.mem_ctrls.wrPerTurnAround::mean      16.909091                       # Writes before turning the bus around for reads
system.mem_ctrls.wrPerTurnAround::gmean     16.879949                       # Writes before turning the bus around for reads
system.mem_ctrls.wrPerTurnAround::stdev      1.044466                       # Writes before turning the bus around for reads
system.mem_ctrls.wrPerTurnAround::16                6     54.55%     54.55% # Writes before turning the bus around for reads
system.mem_ctrls.wrPerTurnAround::18                5     45.45%    100.00% # Writes before turning the bus around for reads
system.mem_ctrls.wrPerTurnAround::total            11                       # Writes before turning the bus around for reads
system.mem_ctrls.bytesReadWrQ                    1408                       # Total number of bytes read from write queue
system.mem_ctrls.bytesReadSys                  317376                       # Total read bytes from the system interface side
system.mem_ctrls.bytesWrittenSys                13376                       # Total written bytes from the system interface side
system.mem_ctrls.avgRdBWSys                     37.07                       # Average system read bandwidth in MiByte/s
system.mem_ctrls.avgWrBWSys                      1.56                       # Average system write bandwidth in MiByte/s
system.mem_ctrls.totGap                    8561572750                       # Total gap between requests
system.mem_ctrls.avgGap                    1656651.07                       # Average gap between requests
system.mem_ctrls.requestorReadBytes::.cpu.inst        29440                       # Per-requestor bytes read from memory
system.mem_ctrls.requestorReadBytes::.cpu.data       286528                       # Per-requestor bytes read from memory
system.mem_ctrls.requestorWriteBytes::.writebacks        11904                       # Per-requestor bytes write to memory
system.mem_ctrls.requestorReadRate::.cpu.inst 3438618.843234137632                       # Per-requestor bytes read from memory rate (Bytes/sec)
system.mem_ctrls.requestorReadRate::.cpu.data 33466731.654693987221                       # Per-requestor bytes read from memory rate (Bytes/sec)
system.mem_ctrls.requestorWriteRate::.writebacks 1390398.054003368597                       # Per-requestor bytes write to memory rate (Bytes/sec)
system.mem_ctrls.requestorReadAccesses::.cpu.inst          475                       # Per-requestor read serviced memory accesses
system.mem_ctrls.requestorReadAccesses::.cpu.data         4484                       # Per-requestor read serviced memory accesses
system.mem_ctrls.requestorWriteAccesses::.writebacks          209                       # Per-requestor write serviced memory accesses
system.mem_ctrls.requestorReadTotalLat::.cpu.inst     11677000                       # Per-requestor read total memory access latency
system.mem_ctrls.requestorReadTotalLat::.cpu.data    112159000                       # Per-requestor read total memory access latency
system.mem_ctrls.requestorWriteTotalLat::.writebacks 226890910000                       # Per-requestor write total memory access latency
system.mem_ctrls.requestorReadAvgLat::.cpu.inst     24583.16                       # Per-requestor read average memory access latency
system.mem_ctrls.requestorReadAvgLat::.cpu.data     25013.16                       # Per-requestor read average memory access latency
system.mem_ctrls.requestorWriteAvgLat::.writebacks 1085602440.19                       # Per-requestor write average memory access latency
system.mem_ctrls.dram.bytes_read::.cpu.inst        30400                       # Number of bytes read from this memory
system.mem_ctrls.dram.bytes_read::.cpu.data       286976                       # Number of bytes read from this memory
system.mem_ctrls.dram.bytes_read::total        317376                       # Number of bytes read from this memory
system.mem_ctrls.dram.bytes_inst_read::.cpu.inst        30400                       # Number of instructions bytes read from this memory
system.mem_ctrls.dram.bytes_inst_read::total        30400                       # Number of instructions bytes read from this memory
system.mem_ctrls.dram.bytes_written::.writebacks         5760                       # Number of bytes written to this memory
system.mem_ctrls.dram.bytes_written::total         5760                       # Number of bytes written to this memory
system.mem_ctrls.dram.num_reads::.cpu.inst          475                       # Number of read requests responded to by this memory
system.mem_ctrls.dram.num_reads::.cpu.data         4484                       # Number of read requests responded to by this memory
system.mem_ctrls.dram.num_reads::total           4959                       # Number of read requests responded to by this memory
system.mem_ctrls.dram.num_writes::.writebacks           90                       # Number of write requests responded to by this memory
system.mem_ctrls.dram.num_writes::total            90                       # Number of write requests responded to by this memory
system.mem_ctrls.dram.bw_read::.cpu.inst      3550748                       # Total read bandwidth from this memory (bytes/s)
system.mem_ctrls.dram.bw_read::.cpu.data     33519058                       # Total read bandwidth from this memory (bytes/s)
system.mem_ctrls.dram.bw_read::total         37069806                       # Total read bandwidth from this memory (bytes/s)
system.mem_ctrls.dram.bw_inst_read::.cpu.inst      3550748                       # Instruction read bandwidth from this memory (bytes/s)
system.mem_ctrls.dram.bw_inst_read::total      3550748                       # Instruction read bandwidth from this memory (bytes/s)
system.mem_ctrls.dram.bw_write::.writebacks       672773                       # Write bandwidth from this memory (bytes/s)
system.mem_ctrls.dram.bw_write::total          672773                       # Write bandwidth from this memory (bytes/s)
system.mem_ctrls.dram.bw_total::.writebacks       672773                       # Total bandwidth to/from this memory (bytes/s)
system.mem_ctrls.dram.bw_total::.cpu.inst      3550748                       # Total bandwidth to/from this memory (bytes/s)
system.mem_ctrls.dram.bw_total::.cpu.data     33519058                       # Total bandwidth to/from this memory (bytes/s)
system.mem_ctrls.dram.bw_total::total        37742579                       # Total bandwidth to/from this memory (bytes/s)
system.mem_ctrls.dram.readBursts                 4937                       # Number of DRAM read bursts
system.mem_ctrls.dram.writeBursts                 186                       # Number of DRAM write bursts
system.mem_ctrls.dram.perBankRdBursts::0          341                       # Per bank write bursts
system.mem_ctrls.dram.perBankRdBursts::1          339                       # Per bank write bursts
system.mem_ctrls.dram.perBankRdBursts::2          387                       # Per bank write bursts
system.mem_ctrls.dram.perBankRdBursts::3          259                       # Per bank write bursts
system.mem_ctrls.dram.perBankRdBursts::4          257                       # Per bank write bursts
system.mem_ctrls.dram.perBankRdBursts::5          298                       # Per bank write bursts
system.mem_ctrls.dram.perBankRdBursts::6          256                       # Per bank write bursts
system.mem_ctrls.dram.perBankRdBursts::7          293                       # Per bank write bursts
system.mem_ctrls.dram.perBankRdBursts::8          297                       # Per bank write bursts
system.mem_ctrls.dram.perBankRdBursts::9          320                       # Per bank write bursts
system.mem_ctrls.dram.perBankRdBursts::10          303                       # Per bank write bursts
system.mem_ctrls.dram.perBankRdBursts::11          277                       # Per bank write bursts
system.mem_ctrls.dram.perBankRdBursts::12          278                       # Per bank write bursts
system.mem_ctrls.dram.perBankRdBursts::13          322                       # Per bank write bursts
system.mem_ctrls.dram.perBankRdBursts::14          357                       # Per bank write bursts
system.mem_ctrls.dram.perBankRdBursts::15          353                       # Per bank write bursts
system.mem_ctrls.dram.perBankWrBursts::0           32                       # Per bank write bursts
system.mem_ctrls.dram.perBankWrBursts::1            2                       # Per bank write bursts
system.mem_ctrls.dram.perBankWrBursts::2            8                       # Per bank write bursts
system.mem_ctrls.dram.perBankWrBursts::3            0                       # Per bank write bursts
system.mem_ctrls.dram.perBankWrBursts::4            0                       # Per bank write bursts
system.mem_ctrls.dram.perBankWrBursts::5            4                       # Per bank write bursts
system.mem_ctrls.dram.perBankWrBursts::6            0                       # Per bank write bursts
system.mem_ctrls.dram.perBankWrBursts::7            1                       # Per bank write bursts
system.mem_ctrls.dram.perBankWrBursts::8            7                       # Per bank write bursts
system.mem_ctrls.dram.perBankWrBursts::9           12                       # Per bank write bursts
system.mem_ctrls.dram.perBankWrBursts::10           16                       # Per bank write bursts
system.mem_ctrls.dram.perBankWrBursts::11            2                       # Per bank write bursts
system.mem_ctrls.dram.perBankWrBursts::12            4                       # Per bank write bursts
system.mem_ctrls.dram.perBankWrBursts::13           24                       # Per bank write bursts
system.mem_ctrls.dram.perBankWrBursts::14           44                       # Per bank write bursts
system.mem_ctrls.dram.perBankWrBursts::15           30                       # Per bank write bursts
system.mem_ctrls.dram.totQLat                31267250                       # Total ticks spent queuing
system.mem_ctrls.dram.totBusLat              24685000                       # Total ticks spent in databus transfers
system.mem_ctrls.dram.totMemAccLat          123836000                       # Total ticks spent from burst creation until serviced by the DRAM
system.mem_ctrls.dram.avgQLat                 6333.25                       # Average queueing delay per DRAM burst
system.mem_ctrls.dram.avgBusLat               5000.00                       # Average bus latency per DRAM burst
system.mem_ctrls.dram.avgMemAccLat           25083.25                       # Average memory access latency per DRAM burst
system.mem_ctrls.dram.readRowHits                4498                       # Number of row buffer hits during reads
system.mem_ctrls.dram.writeRowHits                148                       # Number of row buffer hits during writes
system.mem_ctrls.dram.readRowHitRate            91.11                       # Row buffer hit rate for reads
system.mem_ctrls.dram.writeRowHitRate           79.57                       # Row buffer hit rate for writes
system.mem_ctrls.dram.bytesPerActivate::samples          465                       # Bytes accessed per row activation
system.mem_ctrls.dram.bytesPerActivate::mean   694.778495                       # Bytes accessed per row activation
system.mem_ctrls.dram.bytesPerActivate::gmean   511.981427                       # Bytes accessed per row activation
system.mem_ctrls.dram.bytesPerActivate::stdev   378.551533                       # Bytes accessed per row activation
system.mem_ctrls.dram.bytesPerActivate::0-127           47     10.11%     10.11% # Bytes accessed per row activation
system.mem_ctrls.dram.bytesPerActivate::128-255           54     11.61%     21.72% # Bytes accessed per row activation
system.mem_ctrls.dram.bytesPerActivate::256-383           35      7.53%     29.25% # Bytes accessed per row activation
system.mem_ctrls.dram.bytesPerActivate::384-511           20      4.30%     33.55% # Bytes accessed per row activation
system.mem_ctrls.dram.bytesPerActivate::512-639           16      3.44%     36.99% # Bytes accessed per row activation
system.mem_ctrls.dram.bytesPerActivate::640-767           15      3.23%     40.22% # Bytes accessed per row activation
system.mem_ctrls.dram.bytesPerActivate::768-895           16      3.44%     43.66% # Bytes accessed per row activation
system.mem_ctrls.dram.bytesPerActivate::896-1023           64     13.76%     57.42% # Bytes accessed per row activation
system.mem_ctrls.dram.bytesPerActivate::1024-1151          198     42.58%    100.00% # Bytes accessed per row activation
system.mem_ctrls.dram.bytesPerActivate::total          465                       # Bytes accessed per row activation
system.mem_ctrls.dram.bytesRead                315968                       # Total number of bytes read from DRAM
system.mem_ctrls.dram.bytesWritten              11904                       # Total number of bytes written to DRAM
system.mem_ctrls.dram.avgRdBW               36.905350                       # Average DRAM read bandwidth in MiBytes/s
system.mem_ctrls.dram.avgWrBW                1.390398                       # Average DRAM write bandwidth in MiBytes/s
system.mem_ctrls.dram.peakBW                 12800.00                       # Theoretical peak bandwidth in MiByte/s
system.mem_ctrls.dram.busUtil                    0.30                       # Data bus utilization in percentage
system.mem_ctrls.dram.busUtilRead                0.29                       # Data bus utilization in percentage for reads
system.mem_ctrls.dram.busUtilWrite               0.01                       # Data bus utilization in percentage for writes
system.mem_ctrls.dram.pageHitRate               90.69                       # Row buffer hit rate, read and write combined
system.mem_ctrls.dram.power_state.pwrStateResidencyTicks::UNDEFINED   8561577000                       # Cumulative time (in ticks) in various power states
system.mem_ctrls.dram.rank0.actEnergy         1620780                       # Energy for activate commands per rank (pJ)
system.mem_ctrls.dram.rank0.preEnergy          842490                       # Energy for precharge commands per rank (pJ)
system.mem_ctrls.dram.rank0.readEnergy       17350200                       # Energy for read commands per rank (pJ)
system.mem_ctrls.dram.rank0.writeEnergy        245340                       # Energy for write commands per rank (pJ)
system.mem_ctrls.dram.rank0.refreshEnergy 675489360.000000                       # Energy for refresh commands per rank (pJ)
system.mem_ctrls.dram.rank0.actBackEnergy    307611900                       # Energy for active background per rank (pJ)
system.mem_ctrls.dram.rank0.preBackEnergy   3028604160                       # Energy for precharge background per rank (pJ)
system.mem_ctrls.dram.rank0.actPowerDownEnergy            0                       # Energy for active power-down per rank (pJ)
system.mem_ctrls.dram.rank0.prePowerDownEnergy            0                       # Energy for precharge power-down per rank (pJ)
system.mem_ctrls.dram.rank0.selfRefreshEnergy            0                       # Energy for self refresh per rank (pJ)
system.mem_ctrls.dram.rank0.totalEnergy    4031764230                       # Total energy per rank (pJ)
system.mem_ctrls.dram.rank0.averagePower   470.913738                       # Core power per rank (mW)
system.mem_ctrls.dram.rank0.totalIdleTime            0                       # Total Idle time Per DRAM Rank
system.mem_ctrls.dram.rank0.pwrStateTime::IDLE   7869869750                       # Time in different power states
system.mem_ctrls.dram.rank0.pwrStateTime::REF    285740000                       # Time in different power states
system.mem_ctrls.dram.rank0.pwrStateTime::SREF            0                       # Time in different power states
system.mem_ctrls.dram.rank0.pwrStateTime::PRE_PDN            0                       # Time in different power states
system.mem_ctrls.dram.rank0.pwrStateTime::ACT    405967250                       # Time in different power states
system.mem_ctrls.dram.rank0.pwrStateTime::ACT_PDN            0                       # Time in different power states
system.mem_ctrls.dram.rank1.actEnergy         1785000                       # Energy for activate commands per rank (pJ)
system.mem_ctrls.dram.rank1.preEnergy          922185                       # Energy for precharge commands per rank (pJ)
system.mem_ctrls.dram.rank1.readEnergy       17899980                       # Energy for read commands per rank (pJ)
system.mem_ctrls.dram.rank1.writeEnergy        725580                       # Energy for write commands per rank (pJ)
system.mem_ctrls.dram.rank1.refreshEnergy 675489360.000000                       # Energy for refresh commands per rank (pJ)
system.mem_ctrls.dram.rank1.actBackEnergy    297949830                       # Energy for active background per rank (pJ)
system.mem_ctrls.dram.rank1.preBackEnergy   3036740640                       # Energy for precharge background per rank (pJ)
system.mem_ctrls.dram.rank1.actPowerDownEnergy            0                       # Energy for active power-down per rank (pJ)
system.mem_ctrls.dram.rank1.prePowerDownEnergy            0                       # Energy for precharge power-down per rank (pJ)
system.mem_ctrls.dram.rank1.selfRefreshEnergy            0                       # Energy for self refresh per rank (pJ)
system.mem_ctrls.dram.rank1.totalEnergy    4031512575                       # Total energy per rank (pJ)
system.mem_ctrls.dram.rank1.averagePower   470.884345                       # Core power per rank (mW)
system.mem_ctrls.dram.rank1.totalIdleTime            0                       # Total Idle time Per DRAM Rank
system.mem_ctrls.dram.rank1.pwrStateTime::IDLE   7891338500                       # Time in different power states
system.mem_ctrls.dram.rank1.pwrStateTime::REF    285740000                       # Time in different power states
system.mem_ctrls.dram.rank1.pwrStateTime::SREF            0                       # Time in different power states
system.mem_ctrls.dram.rank1.pwrStateTime::PRE_PDN            0                       # Time in different power states
system.mem_ctrls.dram.rank1.pwrStateTime::ACT    384498500                       # Time in different power states
system.mem_ctrls.dram.rank1.pwrStateTime::ACT_PDN            0                       # Time in different power states
system.mem_ctrls.power_state.pwrStateResidencyTicks::UNDEFINED   8561577000                       # Cumulative time (in ticks) in various power states
system.membus.trans_dist::ReadResp               4872                       # Transaction distribution
system.membus.trans_dist::WritebackDirty           90                       # Transaction distribution
system.membus.trans_dist::WritebackClean          125                       # Transaction distribution
system.membus.trans_dist::CleanEvict             3370                       # Transaction distribution
system.membus.trans_dist::ReadExReq                87                       # Transaction distribution
system.membus.trans_dist::ReadExResp               87                       # Transaction distribution
system.membus.trans_dist::ReadCleanReq            475                       # Transaction distribution
system.membus.trans_dist::ReadSharedReq          4397                       # Transaction distribution
system.membus.pkt_count_system.cpu.icache.mem_side_port::system.mem_ctrls.port         1075                       # Packet count per connected requestor and responder (bytes)
system.membus.pkt_count_system.cpu.dcache.mem_side_port::system.mem_ctrls.port        12428                       # Packet count per connected requestor and responder (bytes)
system.membus.pkt_count::total                  13503                       # Packet count per connected requestor and responder (bytes)
system.membus.pkt_size_system.cpu.icache.mem_side_port::system.mem_ctrls.port        38400                       # Cumulative packet size per connected requestor and responder (bytes)
system.membus.pkt_size_system.cpu.dcache.mem_side_port::system.mem_ctrls.port       292736                       # Cumulative packet size per connected requestor and responder (bytes)
system.membus.pkt_size::total                  331136                       # Cumulative packet size per connected requestor and responder (bytes)
system.membus.snoops                                0                       # Total snoops (count)
system.membus.snoopTraffic                          0                       # Total snoop traffic (bytes)
system.membus.snoop_fanout::samples              4959                       # Request fanout histogram
system.membus.snoop_fanout::mean             0.006856                       # Request fanout histogram
system.membus.snoop_fanout::stdev            0.082526                       # Request fanout histogram
system.membus.snoop_fanout::underflows              0      0.00%      0.00% # Request fanout histogram
system.membus.snoop_fanout::0                    4925     99.31%     99.31% # Request fanout histogram
system.membus.snoop_fanout::1                      34      0.69%    100.00% # Request fanout histogram
system.membus.snoop_fanout::2                       0      0.00%    100.00% # Request fanout histogram
system.membus.snoop_fanout::overflows               0      0.00%    100.00% # Request fanout histogram
system.membus.snoop_fanout::min_value               0                       # Request fanout histogram
system.membus.snoop_fanout::max_value               1                       # Request fanout histogram
system.membus.snoop_fanout::total                4959                       # Request fanout histogram
system.membus.power_state.pwrStateResidencyTicks::UNDEFINED   8561577000                       # Cumulative time (in ticks) in various power states
system.membus.reqLayer0.occupancy            12479000                       # Layer occupancy (ticks)
system.membus.reqLayer0.utilization               0.1                       # Layer utilization (%)
system.membus.respLayer1.occupancy            2519000                       # Layer occupancy (ticks)
system.membus.respLayer1.utilization              0.0                       # Layer utilization (%)
system.membus.respLayer2.occupancy           23635000                       # Layer occupancy (ticks)
system.membus.respLayer2.utilization              0.3                       # Layer utilization (%)
system.voltage_domain.voltage                       1                       # Voltage in Volts

---------- End Simulation Statistics   ----------
